! Z* coordinate regridding + initialization
USE_REGRIDDING = True
REGRIDDING_COORDINATE_MODE = "Z*"
INTERPOLATION_SCHEME = "PQM_IH4IH3"
BOUNDARY_EXTRAPOLATION = True
REMAPPING_SCHEME = "PQM_IH4IH3"

#override DAYMAX=48.0
#override ENERGYSAVEDAYS=0.25
#override DT_FORCING = 900.0
